*Heading
** Job name: Job-4 Model name: Model-1
** Generated by: Abaqus/CAE 2023
*Preprint, echo=NO, model=NO, history=NO, contact=NO
**
** PARTS
**
*Part, name=Part-1
*Node
      1, 0.00749999983, -0.0236799996, 0.00300000003
      2, 0.00749999983, -0.0386799984, 0.00300000003
      3, 0.00749999983, -0.0386799984,           0.
      4, 0.00749999983, -0.0236799996,           0.
      5, -0.00749999983, -0.0386799984, 0.00300000003
      6, -0.00749999983, -0.0386799984,           0.
      7, -0.00749999983, -0.0236799996,           0.
      8, -0.00749999983, -0.0236799996, 0.00300000003
      9,           0., -0.0386799984,           0.
     10,           0., -0.0386799984, 0.00300000003
     11, -0.00249999994, 0.0125000002, 0.00300000003
     12, -0.00249999994, 0.0125000002,           0.
     13, -0.00249999994,           0.,           0.
     14, -0.00249999994, -0.0125000002,           0.
     15, -0.00249999994,           0., 0.00300000003
     16, -0.00249999994, -0.0125000002, 0.00300000003
     17, 0.00249999994, 0.0125000002,           0.
     18, 0.00249999994,           0.,           0.
     19, 0.00249999994, -0.0125000002,           0.
     20, 0.00249999994, -0.0125000002, 0.00300000003
** ... 3060 like lines cut
*Element, type=C3D8R
  1,   78,  459, 1731,  405,    1,   33,  369,   50
  2,  459,  460, 1732, 1731,   33,   34,  370,  369
  3,  460,  461, 1733, 1732,   34,   35,  371,  370
  4,  461,  462, 1734, 1733,   35,   36,  372,  371
  5,  462,  463, 1735, 1734,   36,   37,  373,  372
  6,  463,  464, 1736, 1735,   37,   38,  374,  373
  7,  464,   95,  432, 1736,   38,    2,   39,  374
  8,  405, 1731, 1737,  406,   50,  369,  375,   49
  9, 1731, 1732, 1738, 1737,  369,  370,  376,  375
 10, 1732, 1733, 1739, 1738,  370,  371,  377,  376
 11, 1733, 1734, 1740, 1739,  371,  372,  378,  377
 12, 1734, 1735, 1741, 1740,  372,  373,  379,  378
 13, 1735, 1736, 1742, 1741,  373,  374,  380,  379
 14, 1736,  432,  433, 1742,  374,   39,   40,  380
 15,  406, 1737, 1743,  407,   49,  375,  381,   48
 16, 1737, 1738, 1744, 1743,  375,  376,  382,  381
 17, 1738, 1739, 1745, 1744,  376,  377,  383,  382
 18, 1739, 1740, 1746, 1745,  377,  378,  384,  383
 19, 1740, 1741, 1747, 1746,  378,  379,  385,  384
 20, 1741, 1742, 1748, 1747,  379,  380,  386,  385
** ... 2180 like lines cut
*Nset, nset=Set-1, generate
    1,  3080,     1
*Elset, elset=Set-1, generate
    1,  2200,     1
** Section: Section-1
*Solid Section, elset=Set-1, controls=EC-1, material=Ti
,
*End Part
**  
**
** ASSEMBLY
**
*Assembly, name=Assembly
**  
*Instance, name=Part-1-1, part=Part-1
*End Instance
**  
*Nset, nset=Set-1, instance=Part-1-1
    1,    2,    3,    4,    5,    6,    7,    8,    9,   10,   33,   34,   35,   36,   37,   38
   39,   40,   41,   42,   43,   44,   45,   46,   47,   48,   49,   50,   51,   52,   53,   54
   55,   56,   57,   58,   59,   60,   61,   62,   63,   64,   65,   66,   67,   68,   69,   70
   71,   72,   73,   74,   75,   76,   77,   78,   79,   80,   81,   82,   83,   84,   85,   86
   87,   88,   89,   90,   91,   92,   93,   94,   95,   96,   97,   98,   99,  100,  101,  102
  369,  370,  371,  372,  373,  374,  375,  376,  377,  378,  379,  380,  381,  382,  383,  384
  385,  386,  387,  388,  389,  390,  391,  392,  393,  394,  395,  396,  397,  398,  399,  400
  401,  402,  403,  404,  405,  406,  407,  408,  409,  410,  411,  412,  413,  414,  415,  416
  417,  418,  419,  420,  421,  422,  423,  424,  425,  426,  427,  428,  429,  430,  431,  432
  433,  434,  435,  436,  437,  438,  439,  440,  441,  442,  443,  444,  445,  446,  447,  448
  449,  450,  451,  452,  453,  454,  455,  456,  457,  458,  459,  460,  461,  462,  463,  464
  465,  466,  467,  468,  469,  470,  471,  472,  473,  474,  475,  476,  477,  478,  479,  480
  481,  482,  483,  484,  485,  486,  487,  488,  489,  490,  491,  492,  493,  494,  495,  496
  497,  498,  499,  500,  501,  502,  503,  504,  505,  506,  507,  508,  509,  510,  511,  512
  513,  514,  515,  516,  517,  518,  519,  520,  521,  522,  523,  524,  525,  526,  527,  528
  529,  530,  531,  532,  533,  534,  535,  536,  537,  538,  539,  540,  541,  542,  543,  544
  545,  546,  547,  548,  549,  550,  551,  552,  553,  554,  555,  556,  557,  558,  559,  560
  561,  562,  563,  564,  565,  566, 1731, 1732, 1733, 1734, 1735, 1736, 1737, 1738, 1739, 1740
 1741, 1742, 1743, 1744, 1745, 1746, 1747, 1748, 1749, 1750, 1751, 1752, 1753, 1754, 1755, 1756
 1757, 1758, 1759, 1760, 1761, 1762, 1763, 1764, 1765, 1766, 1767, 1768, 1769, 1770, 1771, 1772
** ... 8 like lines cut
*Elset, elset=Set-1, instance=Part-1-1, generate
   1,  280,    1
*Nset, nset=Set-2, instance=Part-1-1
   23,   24,   25,   26,   27,   28,   29,   30,   31,   32,  267,  268,  269,  270,  271,  272
  273,  274,  275,  276,  277,  278,  279,  280,  281,  282,  283,  284,  285,  286,  287,  288
  289,  290,  291,  292,  293,  294,  295,  296,  297,  298,  299,  300,  301,  302,  303,  304
  305,  306,  307,  308,  309,  310,  311,  312,  313,  314,  315,  316,  317,  318,  319,  320
  321,  322,  323,  324,  325,  326,  327,  328,  329,  330,  331,  332,  333,  334,  335,  336
  337,  338,  339,  340,  341,  342,  343,  344,  345,  346,  347,  348, 1341, 1342, 1343, 1344
 1345, 1346, 1347, 1348, 1349, 1350, 1351, 1352, 1353, 1354, 1355, 1356, 1357, 1358, 1359, 1360
 1361, 1362, 1363, 1364, 1365, 1366, 1367, 1368, 1369, 1370, 1371, 1372, 1373, 1374, 1375, 1376
 1377, 1378, 1379, 1380, 1381, 1382, 1383, 1384, 1385, 1386, 1387, 1388, 1389, 1390, 1391, 1392
 1393, 1394, 1395, 1396, 1397, 1398, 1399, 1400, 1401, 1402, 1403, 1404, 1405, 1406, 1407, 1408
 1409, 1410, 1411, 1412, 1413, 1414, 1415, 1416, 1417, 1418, 1419, 1420, 1421, 1422, 1423, 1424
 1425, 1426, 1427, 1428, 1429, 1430, 1431, 1432, 1433, 1434, 1435, 1436, 1437, 1438, 1439, 1440
 1441, 1442, 1443, 1444, 1445, 1446, 1447, 1448, 1449, 1450, 1451, 1452, 1453, 1454, 1455, 1456
 1457, 1458, 1459, 1460, 1461, 1462, 1463, 1464, 1465, 1466, 1467, 1468, 1469, 1470, 1471, 1472
 1473, 1474, 1475, 1476, 1477, 1478, 1479, 1480, 1481, 1482, 1483, 1484, 1485, 1486, 1487, 1488
 1489, 1490, 1491, 1492, 1493, 1494, 1495, 1496, 1497, 1498, 1499, 1500, 1501, 1502, 1503, 1504
 1505, 1506, 1507, 1508, 1509, 1510, 1511, 1512, 1513, 1514, 1515, 1516, 1517, 1518, 1519, 1520
 1521, 1522, 1523, 1524, 1525, 1526, 1527, 1528, 1529, 1530, 1531, 1532, 1533, 1534, 1535, 1536
 1537, 1538, 1539, 1540, 1541, 1542, 1543, 1544, 1545, 1546, 1547, 1548, 1549, 1550, 1551, 1552
 1553, 1554, 1555, 1556, 1557, 1558, 1559, 1560, 1561, 1562, 1563, 1564, 1565, 1566, 1567, 1568
** ... 18 like lines cut
*Elset, elset=Set-2, instance=Part-1-1, generate
 1561,  1960,     1
*End Assembly
** 
** ELEMENT CONTROLS
** 
*Section Controls, name=EC-1, ELEMENT DELETION=YES, hourglass=STIFFNESS
1., 1., 1.
** 
** MATERIALS
** 
*Material, name=Ti
*Damage Initiation, criterion=DUCTILE
 0.394,  0.33, 0.001
*Damage Evolution, type=DISPLACEMENT
 0.05,
*Density
4900.,
*Elastic
 1.1e+11, 0.33
*Plastic
 2.26186e+08,        0.
 2.34219e+08, 0.0299148
 2.42253e+08, 0.0313741
 2.51628e+08,  0.033563
 2.61004e+08, 0.0357519
 2.71717e+08, 0.0379407
 2.83776e+08, 0.0415889
 2.95831e+08, 0.0445074
 3.07886e+08, 0.0474259
 3.18604e+08, 0.0503444
 3.29322e+08,  0.053263
 3.40049e+08, 0.0576407
 3.50782e+08, 0.0627481
 3.61524e+08, 0.0693148
  3.7093e+08, 0.0758815
 3.81667e+08, 0.0817185
 3.92415e+08, 0.0890148
 4.01825e+08, 0.0963111
 4.15257e+08,  0.105067
 4.26019e+08,  0.114552
** ... 24 like lines cut
** 
** BOUNDARY CONDITIONS
** 
** Name: BC-1 Type: Symmetry/Antisymmetry/Encastre
*Boundary
Set-1, ENCASTRE
** ----------------------------------------------------------------
** 
** STEP: Step-1
** 
*Step, name=Step-1, nlgeom=YES
*Dynamic, Explicit
, 10.
*Bulk Viscosity
0.06, 1.2
** Mass Scaling: Semi-Automatic
**               Whole Model
*Fixed Mass Scaling, factor=50000.
** 
** BOUNDARY CONDITIONS
** 
** Name: BC-2 Type: Velocity/Angular velocity
*Boundary, type=VELOCITY
Set-2, 1, 1
Set-2, 2, 2, 0.001
Set-2, 3, 3
Set-2, 4, 4
Set-2, 5, 5
Set-2, 6, 6
** 
** OUTPUT REQUESTS
** 
*Restart, write, number interval=1, time marks=NO
** 
** FIELD OUTPUT: F-Output-1
** 
*Output, field, variable=PRESELECT
** 
** HISTORY OUTPUT: H-Output-1
** 
*Output, history, variable=PRESELECT
*End Step
