*Heading
** Job name: Job-3 Model name: Model-1
** Generated by: Abaqus/CAE 2023
*Preprint, echo=NO, model=NO, history=NO, contact=NO
**
** PARTS
**
*Part, name=Part-1
*Node
      1, 0.00749999983, -0.0236799996, 0.00300000003
      2, 0.00749999983, -0.0386799984, 0.00300000003
      3, 0.00749999983, -0.0386799984,           0.
      4, 0.00749999983, -0.0236799996,           0.
      5, -0.00749999983, -0.0386799984, 0.00300000003
      6, -0.00749999983, -0.0386799984,           0.
      7, -0.00749999983, -0.0236799996,           0.
      8, -0.00749999983, -0.0236799996, 0.00300000003
      9,           0., -0.0386799984,           0.
     10,           0., -0.0386799984, 0.00300000003
     11, -0.00249999994, 0.0125000002, 0.00300000003
     12, -0.00249999994, 0.0125000002,           0.
     13, -0.00249999994,           0.,           0.
     14, -0.00249999994, -0.0125000002,           0.
     15, -0.00249999994,           0., 0.00300000003
     16, -0.00249999994, -0.0125000002, 0.00300000003
     17, 0.00249999994, 0.0125000002,           0.
     18, 0.00249999994,           0.,           0.
     19, 0.00249999994, -0.0125000002,           0.
     20, 0.00249999994, -0.0125000002, 0.00300000003
** ... 3445 like lines cut
*Element, type=C3D8R
  1,   90,  505, 1927,  451,    1,   33,  397,   56
  2,  505,  506, 1928, 1927,   33,   34,  398,  397
  3,  506,  507, 1929, 1928,   34,   35,  399,  398
  4,  507,  508, 1930, 1929,   35,   36,  400,  399
  5,  508,  509, 1931, 1930,   36,   37,  401,  400
  6,  509,  510, 1932, 1931,   37,   38,  402,  401
  7,  510,  511, 1933, 1932,   38,   39,  403,  402
  8,  511,  512, 1934, 1933,   39,   40,  404,  403
  9,  512,  513, 1935, 1934,   40,   41,  405,  404
 10,  513,  107,  478, 1935,   41,    2,   42,  405
 11,  451, 1927, 1936,  452,   56,  397,  406,   55
 12, 1927, 1928, 1937, 1936,  397,  398,  407,  406
 13, 1928, 1929, 1938, 1937,  398,  399,  408,  407
 14, 1929, 1930, 1939, 1938,  399,  400,  409,  408
 15, 1930, 1931, 1940, 1939,  400,  401,  410,  409
 16, 1931, 1932, 1941, 1940,  401,  402,  411,  410
 17, 1932, 1933, 1942, 1941,  402,  403,  412,  411
 18, 1933, 1934, 1943, 1942,  403,  404,  413,  412
 19, 1934, 1935, 1944, 1943,  404,  405,  414,  413
 20, 1935,  478,  479, 1944,  405,   42,   43,  414
** ... 2460 like lines cut
*Nset, nset=Set-1, generate
    1,  3465,     1
*Elset, elset=Set-1, generate
    1,  2480,     1
** Section: Section-1
*Solid Section, elset=Set-1, controls=EC-1, material=Material-1
,
*End Part
**  
**
** ASSEMBLY
**
*Assembly, name=Assembly
**  
*Instance, name=Part-1-1, part=Part-1
*End Instance
**  
*Nset, nset=Set-1, instance=Part-1-1
    1,    2,    3,    4,    5,    6,    7,    8,    9,   10,   33,   34,   35,   36,   37,   38
   39,   40,   41,   42,   43,   44,   45,   46,   47,   48,   49,   50,   51,   52,   53,   54
   55,   56,   57,   58,   59,   60,   61,   62,   63,   64,   65,   66,   67,   68,   69,   70
   71,   72,   73,   74,   75,   76,   77,   78,   79,   80,   81,   82,   83,   84,   85,   86
   87,   88,   89,   90,   91,   92,   93,   94,   95,   96,   97,   98,   99,  100,  101,  102
  103,  104,  105,  106,  107,  108,  109,  110,  111,  112,  113,  114,  397,  398,  399,  400
  401,  402,  403,  404,  405,  406,  407,  408,  409,  410,  411,  412,  413,  414,  415,  416
  417,  418,  419,  420,  421,  422,  423,  424,  425,  426,  427,  428,  429,  430,  431,  432
  433,  434,  435,  436,  437,  438,  439,  440,  441,  442,  443,  444,  445,  446,  447,  448
  449,  450,  451,  452,  453,  454,  455,  456,  457,  458,  459,  460,  461,  462,  463,  464
  465,  466,  467,  468,  469,  470,  471,  472,  473,  474,  475,  476,  477,  478,  479,  480
  481,  482,  483,  484,  485,  486,  487,  488,  489,  490,  491,  492,  493,  494,  495,  496
  497,  498,  499,  500,  501,  502,  503,  504,  505,  506,  507,  508,  509,  510,  511,  512
  513,  514,  515,  516,  517,  518,  519,  520,  521,  522,  523,  524,  525,  526,  527,  528
  529,  530,  531,  532,  533,  534,  535,  536,  537,  538,  539,  540,  541,  542,  543,  544
  545,  546,  547,  548,  549,  550,  551,  552,  553,  554,  555,  556,  557,  558,  559,  560
  561,  562,  563,  564,  565,  566,  567,  568,  569,  570,  571,  572,  573,  574,  575,  576
  577,  578,  579,  580,  581,  582,  583,  584,  585,  586,  587,  588,  589,  590,  591,  592
  593,  594,  595,  596,  597,  598,  599,  600,  601,  602,  603,  604,  605,  606,  607,  608
  609,  610,  611,  612,  613,  614,  615,  616,  617,  618,  619,  620,  621,  622,  623,  624
** ... 18 like lines cut
*Elset, elset=Set-1, instance=Part-1-1, generate
   1,  400,    1
*Nset, nset=Set-2, instance=Part-1-1
   23,   24,   25,   26,   27,   28,   29,   30,   31,   32,  287,  288,  289,  290,  291,  292
  293,  294,  295,  296,  297,  298,  299,  300,  301,  302,  303,  304,  305,  306,  307,  308
  309,  310,  311,  312,  313,  314,  315,  316,  317,  318,  319,  320,  321,  322,  323,  324
  325,  326,  327,  328,  329,  330,  331,  332,  333,  334,  335,  336,  337,  338,  339,  340
  341,  342,  343,  344,  345,  346,  347,  348,  349,  350,  351,  352,  353,  354,  355,  356
  357,  358,  359,  360,  361,  362,  363,  364,  365,  366,  367,  368, 1489, 1490, 1491, 1492
 1493, 1494, 1495, 1496, 1497, 1498, 1499, 1500, 1501, 1502, 1503, 1504, 1505, 1506, 1507, 1508
 1509, 1510, 1511, 1512, 1513, 1514, 1515, 1516, 1517, 1518, 1519, 1520, 1521, 1522, 1523, 1524
 1525, 1526, 1527, 1528, 1529, 1530, 1531, 1532, 1533, 1534, 1535, 1536, 1537, 1538, 1539, 1540
 1541, 1542, 1543, 1544, 1545, 1546, 1547, 1548, 1549, 1550, 1551, 1552, 1553, 1554, 1555, 1556
 1557, 1558, 1559, 1560, 1561, 1562, 1563, 1564, 1565, 1566, 1567, 1568, 1569, 1570, 1571, 1572
 1573, 1574, 1575, 1576, 1577, 1578, 1579, 1580, 1581, 1582, 1583, 1584, 1585, 1586, 1587, 1588
 1589, 1590, 1591, 1592, 1593, 1594, 1595, 1596, 1597, 1598, 1599, 1600, 1601, 1602, 1603, 1604
 1605, 1606, 1607, 1608, 1609, 1610, 1611, 1612, 1613, 1614, 1615, 1616, 1617, 1618, 1619, 1620
 1621, 1622, 1623, 1624, 1625, 1626, 1627, 1628, 1629, 1630, 1631, 1632, 1633, 1634, 1635, 1636
 1637, 1638, 1639, 1640, 1641, 1642, 1643, 1644, 1645, 1646, 1647, 1648, 1649, 1650, 1651, 1652
 1653, 1654, 1655, 1656, 1657, 1658, 1659, 1660, 1661, 1662, 1663, 1664, 1665, 1666, 1667, 1668
 1669, 1670, 1671, 1672, 1673, 1674, 1675, 1676, 1677, 1678, 1679, 1680, 1681, 1682, 1683, 1684
 1685, 1686, 1687, 1688, 1689, 1690, 1691, 1692, 1693, 1694, 1695, 1696, 1697, 1698, 1699, 1700
 1701, 1702, 1703, 1704, 1705, 1706, 1707, 1708, 1709, 1710, 1711, 1712, 1713, 1714, 1715, 1716
** ... 18 like lines cut
*Elset, elset=Set-2, instance=Part-1-1, generate
 1761,  2160,     1
*End Assembly
** 
** ELEMENT CONTROLS
** 
*Section Controls, name=EC-1, ELEMENT DELETION=YES, hourglass=STIFFNESS
1., 1., 1.
** 
** MATERIALS
** 
*Material, name=Material-1
*Damage Initiation, criterion=DUCTILE
 0.31,  0.33, 0.001
*Damage Evolution, type=DISPLACEMENT
 2e-05,
*Density
4900.,
*Elastic
 1.1e+11, 0.33
*Plastic
 3.16282e+08,         0.
 3.25202e+08,  0.0045653
 3.36672e+08, 0.00687198
  3.4814e+08, 0.00996815
 3.59608e+08,  0.0130643
 3.67249e+08,  0.0161811
 3.74891e+08,  0.0192978
 3.83802e+08,  0.0239867
 3.93984e+08,  0.0302477
 4.02896e+08,  0.0349366
 4.05428e+08,  0.0404493
 4.13061e+08,  0.0459345
 4.20692e+08,  0.0522092
 4.24494e+08,   0.059294
 4.28296e+08,  0.0663788
 4.32095e+08,  0.0742531
 4.34625e+08,  0.0805552
 4.35876e+08,  0.0876538
 4.37127e+08,  0.0947523
 4.38378e+08,   0.101851
 4.38354e+08,   0.108956
 4.38338e+08,   0.113693
 4.38319e+08,    0.11922
** 
** BOUNDARY CONDITIONS
** 
** Name: BC-1 Type: Symmetry/Antisymmetry/Encastre
*Boundary
Set-1, ENCASTRE
** ----------------------------------------------------------------
** 
** STEP: Step-1
** 
*Step, name=Step-1, nlgeom=YES
*Dynamic, Explicit
, 10.
*Bulk Viscosity
0.06, 1.2
** Mass Scaling: Semi-Automatic
**               Whole Model
*Fixed Mass Scaling, factor=50000.
** 
** BOUNDARY CONDITIONS
** 
** Name: BC-2 Type: Velocity/Angular velocity
*Boundary, type=VELOCITY
Set-2, 1, 1
Set-2, 2, 2, 0.001
Set-2, 3, 3
Set-2, 4, 4
Set-2, 5, 5
Set-2, 6, 6
** 
** OUTPUT REQUESTS
** 
*Restart, write, number interval=1, time marks=NO
** 
** FIELD OUTPUT: F-Output-1
** 
*Output, field, variable=PRESELECT
** 
** HISTORY OUTPUT: H-Output-1
** 
*Output, history, variable=PRESELECT
*End Step
